T42/data/state_estimation/PT_Dx_01_2040_Su_Bd/PT_Dx_01_2040_Su_Bd_t8.csv
bus,vm_pu,va_degree,p_mw,q_mvar
1,0.968021,-0.085102,-11.560582,-4.569122
2,0.999875,0.000405,24.695490,9.597307
3,0.968294,-0.085055,-0.000017,-0.000014
4,0.967998,-0.084980,0.000016,-0.000030
5,0.967969,-0.085201,0.000035,0.000010
6,0.967995,-0.085977,-0.021055,-0.010811
7,0.966658,-0.084468,-0.060378,-0.030916
8,0.967384,-0.085314,-0.017285,-0.008855
9,0.966167,-0.085769,-0.670311,-0.343398
10,0.966712,-0.085579,-3.035013,-1.554801
11,0.967307,-0.085438,-0.379920,-0.194558
12,0.965546,-0.087437,-0.001842,-0.000914
13,0.966847,-0.086102,-0.031400,-0.012436
14,0.967017,-0.085351,-1.045635,-0.525389
15,0.965007,-0.087273,-0.010523,-0.005391
16,0.968939,-0.085789,-0.004271,-0.002224
17,0.966603,-0.085481,-0.006432,-0.003325
18,0.966194,-0.085515,-0.004190,-0.002160
19,0.964814,-0.086986,-0.066752,-0.034211
20,0.967400,-0.085748,-1.091621,-0.549108
21,0.964532,-0.087290,-0.000927,-0.000435
22,0.966878,-0.085013,-0.002675,-0.001070
23,0.964869,-0.087701,-0.103818,-0.053184
24,0.964910,-0.087894,-0.046921,-0.018563
25,0.964995,-0.087596,-0.006175,-0.002370
26,0.967234,-0.085144,-0.038056,-0.019551
27,0.967869,-0.084940,-0.004090,-0.001999
28,0.964944,-0.087385,-0.027443,-0.013965
29,0.968452,-0.085578,-0.040068,-0.020509
30,0.966317,-0.085867,-0.114787,-0.058787
31,0.966556,-0.085863,-0.031877,-0.016352
32,0.967338,-0.084811,-0.104269,-0.053439
33,0.966575,-0.085348,-0.424605,-0.207358
34,0.964651,-0.087276,-0.000028,0.000011
35,0.964825,-0.087724,-0.013761,-0.007032
36,0.966903,-0.084932,-0.007167,-0.003800
37,0.968350,-0.085012,-0.003238,-0.001199
38,0.964899,-0.087517,-0.031114,-0.016019
39,0.967160,-0.085395,-0.158055,-0.080980
40,0.965514,-0.087358,-0.012156,-0.004744
41,0.964986,-0.087378,-0.018621,-0.007319
42,0.964334,-0.087425,-0.001322,-0.000787
43,0.964939,-0.087477,-0.070176,-0.035858
44,0.964721,-0.087139,-0.001008,-0.000535
45,0.964020,-0.086973,-0.001644,-0.000684
46,0.966781,-0.086386,-0.087707,-0.044882
47,0.965408,-0.086735,-0.334356,-0.171333
48,0.966825,-0.085523,-0.000493,-0.000263
49,0.967297,-0.086018,-0.032109,-0.016391
50,0.967344,-0.085550,-0.001394,-0.000704
51,0.968521,-0.085320,-0.016734,-0.006665
52,0.966051,-0.084646,-0.000955,-0.000530
53,0.965790,-0.087992,-0.245460,-0.125804
54,0.967057,-0.085084,-0.026183,-0.010382
55,0.967423,-0.084967,-0.037543,-0.019226
56,0.967031,-0.085471,-0.019829,-0.010185
57,0.967255,-0.086394,-0.020162,-0.010295
58,0.964617,-0.087002,-0.010686,-0.005499
59,0.964574,-0.086298,-0.024547,-0.009697
60,0.965233,-0.087170,-0.006789,-0.002700
61,0.966674,-0.085202,-0.664419,-0.330156
62,0.969117,-0.085048,-0.003996,-0.002007
63,0.964779,-0.087235,-0.000236,-0.000100
64,0.967653,-0.085028,-0.287046,-0.147076
65,0.967196,-0.085792,-0.587781,-0.290914
66,0.966528,-0.085672,-0.326761,-0.167320
67,0.966757,-0.084819,-0.028175,-0.014398
68,0.965466,-0.087345,-0.126648,-0.064841
69,0.966348,-0.085352,-0.011007,-0.004444
70,0.967267,-0.085559,-0.016771,-0.008613
71,0.964353,-0.086594,-0.008303,-0.004209
72,0.964412,-0.086600,-0.024291,-0.012435
73,0.964875,-0.087914,-0.008037,-0.003192
74,0.964907,-0.087478,-0.006833,-0.003487
75,0.965052,-0.086268,-0.079364,-0.040715
76,0.966419,-0.084023,-0.009989,-0.005115
77,0.968070,-0.085753,-0.015856,-0.008237
78,0.967807,-0.085876,-0.140515,-0.071931
79,0.968604,-0.086215,-0.136949,-0.070176
80,0.965428,-0.087161,0.000050,0.000037
81,0.964351,-0.086608,-0.000625,-0.000321
82,0.966948,-0.085321,-0.015749,-0.008124
83,0.967053,-0.085294,-0.011691,-0.005981
84,0.967273,-0.085928,-0.005510,-0.002735
85,0.964261,-0.087387,-0.011928,-0.006204
86,0.969080,-0.085459,-0.019672,-0.007774
87,0.967427,-0.086321,-0.053333,-0.027288
88,0.967583,-0.086074,-0.060717,-0.031115
89,0.967433,-0.085281,-0.233916,-0.119796
90,0.967461,-0.085809,-0.044788,-0.022947
91,0.964510,-0.088190,-0.022381,-0.011474
92,0.965067,-0.086374,-0.003611,-0.001832
93,0.966397,-0.085940,-0.037052,-0.018998
94,0.965377,-0.087039,-0.080260,-0.041095
95,0.968509,-0.084792,-0.209191,-0.107069
96,0.964361,-0.087152,-0.013755,-0.005463
97,0.965176,-0.086722,-0.014052,-0.007229
98,0.964632,-0.087527,-0.058705,-0.023166
99,0.967557,-0.085206,-0.617986,-0.306448
100,0.966527,-0.086059,-0.010174,-0.005121
101,0.967674,-0.086219,-0.054786,-0.021569
102,0.966913,-0.085840,-0.220619,-0.102818
103,0.966847,-0.085252,-0.021653,-0.008678
104,0.965420,-0.086507,-0.146734,-0.057983
105,0.967920,-0.085557,-0.001560,-0.000918
106,0.967358,-0.085867,0.000078,0.000031
107,0.966679,-0.085144,-0.000039,0.000045
108,0.966781,-0.085054,-0.000021,0.000004
109,0.966834,-0.087045,0.000019,-0.000019
110,0.965119,-0.087916,-0.000064,0.000045
111,0.964536,-0.086790,0.000015,0.000033
112,0.967908,-0.084374,-0.000014,0.000091
113,0.967541,-0.085302,-0.000060,0.000044
114,0.965908,-0.086203,-0.000082,-0.000028
115,0.965235,-0.088154,-0.000072,-0.000086
116,0.967937,-0.085437,0.000025,-0.000014
117,0.965773,-0.088176,0.000003,-0.000008
118,0.966979,-0.085901,-0.000017,-0.000003
119,0.967221,-0.085274,-0.000013,-0.000029
120,0.967507,-0.085241,-0.000014,0.000076
121,0.967968,-0.084838,0.000064,-0.000006
122,0.966117,-0.084932,0.000016,0.000005
123,0.967242,-0.085989,-0.000005,-0.000026
124,0.967034,-0.084922,0.000000,-0.000017
125,0.966930,-0.085866,-0.000023,-0.000072
126,0.964385,-0.087396,-0.000041,0.000058
127,0.967336,-0.085664,0.000013,-0.000027
128,0.965437,-0.087167,-0.000025,0.000012
129,0.965630,-0.087970,-0.000062,-0.000063
130,0.964867,-0.087717,0.000025,-0.000040
131,0.967840,-0.084927,-0.000043,-0.000001
132,0.964554,-0.087494,-0.000012,-0.000028
133,0.967697,-0.085005,-0.000030,0.000032
134,0.968617,-0.085720,0.000049,0.000015
135,0.964900,-0.086849,0.000072,-0.000039
136,0.964983,-0.086724,0.000053,0.000071
137,0.965442,-0.087908,-0.000034,-0.000085
138,0.965201,-0.086875,0.000021,0.000056
139,0.965466,-0.086791,-0.000032,-0.000033
140,0.966546,-0.085600,0.000070,0.000083
141,0.965426,-0.087779,-0.000030,0.000016
142,0.965519,-0.086319,0.000053,0.000013
143,0.965773,-0.086856,0.000083,0.000033
144,0.968157,-0.084160,0.000016,-0.000059
145,0.968352,-0.085386,0.000035,-0.000057
146,0.967348,-0.085735,0.000074,-0.000009
147,0.966863,-0.085817,0.000007,-0.000004
148,0.967151,-0.085991,0.000008,0.000028
149,0.964623,-0.087113,0.000033,0.000065
150,0.965458,-0.087114,-0.000039,0.000020
151,0.968886,-0.085385,0.000066,-0.000013
152,0.967717,-0.085143,0.000051,0.000007
153,0.967683,-0.084910,0.000018,-0.000044
154,0.967553,-0.086191,0.000063,-0.000009
155,0.964348,-0.087740,-0.000004,0.000069
156,0.965317,-0.085062,-0.000007,-0.000038
157,0.969322,-0.084836,0.000006,0.000016
158,0.967779,-0.085195,0.000015,-0.000064
159,0.965011,-0.087867,0.000081,0.000029
160,0.968335,-0.085227,0.000032,0.000056
161,0.967164,-0.085310,0.000004,0.000049
162,0.964955,-0.088568,0.000057,-0.000079
163,0.968192,-0.084917,0.000034,0.000009
164,0.966419,-0.085743,0.000071,0.000077
165,0.968366,-0.085357,-0.000064,-0.000024
166,0.968374,-0.084830,-0.000070,-0.000027
167,0.964790,-0.086854,-0.000028,0.000029
168,0.967321,-0.086650,-0.000075,0.000075
169,0.967223,-0.084588,-0.000033,0.000050
170,0.967354,-0.085156,0.000042,-0.000004
171,0.965951,-0.088413,0.000017,-0.000047
172,0.964340,-0.086393,0.000047,0.000013
173,0.966641,-0.085455,-0.000058,0.000023
174,0.965502,-0.087230,0.000027,-0.000004
175,0.965765,-0.087026,0.000015,-0.000080
176,0.966328,-0.086347,-0.000017,-0.000022
177,0.965500,-0.086503,0.000062,-0.000057
178,0.965261,-0.086401,-0.000063,-0.000037
179,0.967942,-0.084964,0.000051,-0.000025
180,0.968051,-0.085249,-0.000058,-0.000020
181,0.964109,-0.086615,-0.000001,0.000024
182,0.964982,-0.086845,-0.000024,-0.000055
183,0.967033,-0.085344,-0.000025,0.000081
184,0.967270,-0.085018,-0.000044,-0.000041
185,0.967755,-0.084455,0.000031,-0.000031
186,0.964852,-0.086629,-0.000042,0.000024
187,0.966703,-0.085146,0.000065,0.000008
188,0.964841,-0.086674,0.000022,-0.000017
189,0.968346,-0.086454,-0.000001,-0.000010
190,0.964702,-0.087282,0.000069,0.000041
191,0.969125,-0.085431,-0.000035,-0.000000
